!!>>>>>>>>>>>>>>>>>>>>>>>>>>>>>>>>>>>>>>>>>>>>>>>>>>>>>>>>>>>>>>>>>>>>>>
!! NEMO/OCE  Configuration namelist : overwrite default values defined in SHARED/namelist_ref
!!>>>>>>>>>>>>>>>>>>>>>>>>>>>>>>>>>>>>>>>>>>>>>>>>>>>>>>>>>>>>>>>>>>>>>>
!!                         ISOMIP configuration                       !!
!!======================================================================
!!              ***  Domain & Run management namelists  ***           !!
!!                                                                    !!
!!   namrun       parameters of the run
!!   namdom       space and time domain
!!   namcfg       parameters of the configuration                       (default: user defined GYRE)
!!   namwad       Wetting and drying                                    (default: OFF)
!!   namtsd       data: temperature & salinity                          (default: OFF)
!!   namcrs       coarsened grid (for outputs and/or TOP)               (ln_crs =T)
!!   namc1d       1D configuration options                              (ln_c1d =T)
!!   namc1d_dyndmp 1D newtonian damping applied on currents             (ln_c1d =T)
!!   namc1d_uvd   1D data (currents)                                    (ln_c1d =T)
!!======================================================================
!
!-----------------------------------------------------------------------
&namrun        !   parameters of the run
!-----------------------------------------------------------------------
   cn_exp      =  "ISOMIP" !  experience name
   nn_it000    =       1   !  first time step
   nn_itend    =  525600   !  last  time step
   nn_leapy    =       0   !  Leap year calendar (1) or not (0)
   ln_clobber  = .true.    !  clobber (overwrite) an existing file
   nn_istate   =       0   !  output the initial state (1) or not (0)
   nn_stock    =  99999999 !  frequency of creation of a restart file (modulo referenced to 1)
   nn_write    =      48   !  frequency of write in the output file   (modulo referenced to nn_it000)
   nn_istate   =       0   !  output the initial state (1) or not (0)
/
!-----------------------------------------------------------------------
&namusr_def    !   ISOMIP user defined namelist  
!-----------------------------------------------------------------------
   ln_zps      = .true.    ! z-partial-step coordinate
   ln_zco      = .false.   ! z-full-step coordinate
   ln_sco      = .false.   ! s-coordinate
   rn_e1deg    =   0.3     !  zonal      grid-spacing (degrees)
   rn_e2deg    =   0.1     !  meridional grid-spacing (degrees)
   rn_e3       =   30.     !  vertical resolution
/
!-----------------------------------------------------------------------
&namdom        !   time and space domain
!-----------------------------------------------------------------------
   ln_linssh   = .false.   !  =T  linear free surface  ==>>  model level are fixed in time
   rn_Dt      = 1800.     !  time step for the dynamics (and tracer if nn_acc=0)
/
!-----------------------------------------------------------------------
&namcfg        !   parameters of the configuration                      (default: use namusr_def in namelist_cfg)
!-----------------------------------------------------------------------
/
!-----------------------------------------------------------------------
&namtile        !   parameters of the tiling
!-----------------------------------------------------------------------
/
!-----------------------------------------------------------------------
&namtsd        !    Temperature & Salinity Data  (init/dmp)             (default: OFF)
!-----------------------------------------------------------------------
   
/
!-----------------------------------------------------------------------
&namwad        !   Wetting and Drying (WaD)                             (default: OFF)
!-----------------------------------------------------------------------
/
!-----------------------------------------------------------------------
&namcrs        !   coarsened grid (for outputs and/or TOP)              (ln_crs =T)
!-----------------------------------------------------------------------
/
!-----------------------------------------------------------------------
&namc1d        !   1D configuration options                             (ln_c1d =T default: PAPA station)
!-----------------------------------------------------------------------
/
!-----------------------------------------------------------------------
&namc1d_dyndmp !   U & V newtonian damping                              (ln_c1d =T default: OFF)
!-----------------------------------------------------------------------
/
!-----------------------------------------------------------------------
&namc1d_uvd    !   data: U & V currents                                 (ln_c1d =T default: OFF)
!-----------------------------------------------------------------------

/

!!======================================================================
!!            ***  Surface Boundary Condition namelists  ***          !!
!!                                                                    !!
!!   namsbc          surface boundary condition manager                 (default: NO selection)
!!   namsbc_flx      flux               formulation                     (ln_flx     =T)
!!   namsbc_blk      Bulk formulae formulation                          (ln_blk     =T)
!!   namsbc_cpl      CouPLed            formulation                     ("key_oasis3" )
!!   namsbc_sas      Stand-Alone Surface module                         (SAS_SRC  only)
!!   namsbc_iif      Ice-IF: use observed ice cover                     (nn_ice = 1   )
!!   namtra_qsr      penetrative solar radiation                        (ln_traqsr  =T)
!!   namsbc_ssr      sea surface restoring term (for T and/or S)        (ln_ssr     =T)
!!   namsbc_rnf      river runoffs                                      (ln_rnf     =T)
!!   namsbc_apr      Atmospheric Pressure                               (ln_apr_dyn =T)
!!   namsbc_wave     external fields from wave model                    (ln_wave    =T)
!!   namberg         iceberg floats                                     (ln_icebergs=T)
!!======================================================================
!
!-----------------------------------------------------------------------
&namsbc        !   Surface Boundary Condition manager                   (default: NO selection)
!-----------------------------------------------------------------------
   nn_fsbc     = 1         !  frequency of SBC module call
      !                    !  (control sea-ice & iceberg model call)
   ln_usr      = .true.    !  user defined formulation                  (T => check usrdef_sbc)
/
!-----------------------------------------------------------------------
&namsbc_flx    !   surface boundary condition : flux formulation        (ln_flx =T)
!-----------------------------------------------------------------------
/
!-----------------------------------------------------------------------
&namsbc_blk    !   namsbc_blk  generic Bulk formula                     (ln_blk =T)
!-----------------------------------------------------------------------

/
!-----------------------------------------------------------------------
&namsbc_cpl    !   coupled ocean/atmosphere model                       ("key_oasis3")
!-----------------------------------------------------------------------

/
!-----------------------------------------------------------------------
&namsbc_sas    !   Stand-Alone Surface module: ocean data               (SAS_SRC  only)
!-----------------------------------------------------------------------

/
!-----------------------------------------------------------------------
&namsbc_iif    !   Ice-IF : use observed ice cover                      (nn_ice = 1)
!-----------------------------------------------------------------------
/
!-----------------------------------------------------------------------
&namtra_qsr    !   penetrative solar radiation                          (ln_traqsr =T)
!-----------------------------------------------------------------------
   
/
!-----------------------------------------------------------------------
&namsbc_ssr    !   surface boundary condition : sea surface restoring   (ln_ssr =T)
!-----------------------------------------------------------------------

/
!-----------------------------------------------------------------------
&namsbc_rnf    !   runoffs                                              (ln_rnf =T)
!-----------------------------------------------------------------------

/
!-----------------------------------------------------------------------
&namsbc_apr    !   Atmospheric pressure used as ocean forcing           (ln_apr_dyn =T)
!-----------------------------------------------------------------------

/
!-----------------------------------------------------------------------
&namisf       !  Top boundary layer (ISF)                               (default: OFF)
!-----------------------------------------------------------------------
   !
   ! ---------------- ice shelf load -------------------------------
   !
   !
   ! ---------------- ice shelf melt formulation -------------------------------
   !
   ln_isf = .true.           ! activate ice shelf module
      cn_isfdir = './'           ! directory for all ice shelf input file
      !
      ! ---------------- cavities opened -------------------------------
      !
      ln_isfcav_mlt = .true.    ! ice shelf melting into the cavity (need ln_isfcav = .true. in domain_cfg.nc)
         cn_isfcav_mlt = '2eq'   ! ice shelf melting formulation (spe/2eq/3eq/oasis)
         !                       ! spe = fwfisf is read from a forcing field
         !                       ! 2eq = ISOMIP  like: 2 equations formulation (Hunter et al., 2006)
         !                       ! 3eq = ISOMIP+ like: 3 equations formulation (Asay-Davis et al., 2015)
         !                       ! oasis = fwfisf is given by oasis and pattern by file sn_isfcav_fwf
         !              !  cn_isfcav_mlt = 2eq or 3eq cases:
         cn_gammablk = 'spe'    ! scheme to compute gammat/s (spe,ad15,hj99)
         !                       ! ad15 = velocity dependend Gamma (u* * gammat/s)  (Jenkins et al. 2010)
         !                       ! hj99 = velocity and stability dependent Gamma    (Holland et al. 1999)
         rn_gammat0  = 1.e-4     ! gammat coefficient used in blk formula
         rn_gammas0  = 1.e-4     ! gammas coefficient used in blk formula
         !
         rn_htbl     =  30.      ! thickness of the top boundary layer    (Losh et al. 2008)
         !                       ! 0 => thickness of the tbl = thickness of the first wet cell
         !
/
!-----------------------------------------------------------------------
&namsbc_wave   ! External fields from wave model                        (ln_wave=T)
!-----------------------------------------------------------------------
/
!-----------------------------------------------------------------------
&namberg       !   iceberg parameters                                   (default: OFF)
!-----------------------------------------------------------------------

/

!!======================================================================
!!               ***  Lateral boundary condition  ***                 !!
!!                                                                    !!
!!   namlbc        lateral momentum boundary condition                  (default: NO selection)
!!   namagrif      agrif nested grid   (read by child model only)       ("key_agrif")
!!   nam_tide      Tidal forcing                                        (default: OFF)
!!   nambdy        Unstructured open boundaries                         (default: OFF)
!!   nambdy_dta    Unstructured open boundaries - external data         (see  nambdy)
!!   nambdy_tide   tidal forcing at open boundaries                     (default: OFF)
!!======================================================================
!
!-----------------------------------------------------------------------
&namlbc        !   lateral momentum boundary condition                  (default: NO selection)
!-----------------------------------------------------------------------
   rn_shlat    =    0.     !  free slip
/
!-----------------------------------------------------------------------
&namagrif      !  AGRIF zoom                                            ("key_agrif")
!-----------------------------------------------------------------------
/
!-----------------------------------------------------------------------
&nam_tide      !   tide parameters                                      (default: OFF)
!-----------------------------------------------------------------------
/
!-----------------------------------------------------------------------
&nambdy        !  unstructured open boundaries                          (default: OFF)
!-----------------------------------------------------------------------
/
!-----------------------------------------------------------------------
&nambdy_dta    !  open boundaries - external data                       (see nam_bdy)
!-----------------------------------------------------------------------

/
!-----------------------------------------------------------------------
&nambdy_tide   !  tidal forcing at open boundaries                      (default: OFF)
!-----------------------------------------------------------------------
/

!!======================================================================
!!                ***  Top/Bottom boundary condition  ***             !!
!!                                                                    !!
!!   namdrg        top/bottom drag coefficient                          (default: NO selection)
!!   namdrg_top    top    friction                                      (ln_drg_OFF=F & ln_isfcav=T)
!!   namdrg_bot    bottom friction                                      (ln_drg_OFF=F)
!!   nambbc        bottom temperature boundary condition                (default: OFF)
!!   nambbl        bottom boundary layer scheme                         (default: OFF)
!!======================================================================
!
!-----------------------------------------------------------------------
&namdrg        !   top/bottom drag coefficient                          (default: NO selection)
!-----------------------------------------------------------------------
   ln_drg_OFF = .false.   !  free-slip       : Cd = 0                  (F => fill namdrg_bot
   ln_lin     = .false.    !      linear  drag: Cd = Cd0 Uc0                   &   namdrg_top)
   ln_non_lin = .true.     !  non-linear  drag: Cd = Cd0 |U|
   ln_loglayer = .false.    !  logarithmic drag: Cd = vkarmn/log(z/z0) |U|
   !
   ln_drgimp  = .false.    !  implicit top/bottom friction flag
/
!-----------------------------------------------------------------------
&namdrg_top    !   TOP friction                                         (ln_drg_OFF =F & ln_isfcav=T)
!-----------------------------------------------------------------------
   rn_Cd0     =  2.5e-3    !  drag coefficient [-]
   rn_Uc0     =  0.16      !  ref. velocity [m/s] (linear drag=Cd0*Uc0) 
   rn_Cdmax   =  0.1       !  drag value maximum [-] (logarithmic drag)
   rn_ke0     =  0.0e-0    !  background kinetic energy  [m2/s2] (non-linear cases)
   rn_z0      =  3.0e-3    !  roughness [m] (ln_loglayer=T)
   ln_boost   = .false.    !  =T regional boost of Cd0 ; =F constant
      rn_boost =  50.          !  local boost factor  [-]
/
!-----------------------------------------------------------------------
&namdrg_bot    !   BOTTOM friction                                      (ln_drg_OFF =F)
!-----------------------------------------------------------------------
   rn_Cd0     =  1.e-3    !  drag coefficient [-]
   rn_Uc0     =  0.4      !  ref. velocity [m/s] (linear drag=Cd0*Uc0) 
   rn_Cdmax   =  0.1      !  drag value maximum [-] (logarithmic drag)
   rn_ke0     =  2.5e-3   !  background kinetic energy  [m2/s2] (non-linear cases)
   rn_z0      =  3.e-3    !  roughness [m] (ln_loglayer=T)
   ln_boost   = .false.   !  =T regional boost of Cd0 ; =F constant
      rn_boost =  50.         !  local boost factor  [-]
/
!-----------------------------------------------------------------------
&nambbc        !   bottom temperature boundary condition                (default: OFF)
!-----------------------------------------------------------------------

/
!-----------------------------------------------------------------------
&nambbl        !   bottom boundary layer scheme                         (default: OFF)
!-----------------------------------------------------------------------
/

!!======================================================================
!!                        Tracer (T-S) namelists                      !!
!!                                                                    !!
!!   nameos        equation of state                                    (default: NO selection)
!!   namtra_adv    advection scheme                                     (default: NO selection)
!!   namtra_ldf    lateral diffusion scheme                             (default: NO selection)
!!   namtra_mle    mixed layer eddy param. (Fox-Kemper param.)          (default: OFF)
!!   namtra_eiv    eddy induced velocity param.                         (default: OFF)
!!   namtra_dmp    T & S newtonian damping                              (default: OFF)
!!======================================================================
!
!-----------------------------------------------------------------------
&nameos        !   ocean Equation Of Seawater                           (default: NO selection)
!-----------------------------------------------------------------------
   ln_eos80    = .true.          !  = Use EOS80 equation of state
/
!-----------------------------------------------------------------------
&namtra_adv    !   advection scheme for tracer                          (default: NO selection)
!-----------------------------------------------------------------------
   ln_traadv_fct =  .true.   !  FCT scheme
      nn_fct_h   =  2               !  =2/4, horizontal 2nd / 4th order 
      nn_fct_v   =  2               !  =2/4, vertical   2nd / COMPACT 4th order 
/
!-----------------------------------------------------------------------
&namtra_ldf    !   lateral diffusion scheme for tracers                 (default: NO selection)
!-----------------------------------------------------------------------
   ln_traldf_lap   =  .true.   !    laplacian operator
   ln_traldf_hor   =  .true.   !  horizontal (geopotential)
   !                       !  Coefficients:
   nn_aht_ijk_t    = 0         !  =  0   constant = 1/2  Ud*Ld   (lap case) 
      rn_Ud        = 0.02           !  lateral diffusive velocity [m/s]
      rn_Ld        = 10.e+3         !  lateral diffusive length   [m]
/
!-----------------------------------------------------------------------
&namtra_mle    !   mixed layer eddy parametrisation (Fox-Kemper)       (default: OFF)
!-----------------------------------------------------------------------
/
!-----------------------------------------------------------------------
&namtra_eiv    !   eddy induced velocity param.                         (default: OFF)
!-----------------------------------------------------------------------
/
!-----------------------------------------------------------------------
&namtra_dmp    !   tracer: T & S newtonian damping                      (default: OFF)
!-----------------------------------------------------------------------
/

!!======================================================================
!!                      ***  Dynamics namelists  ***                  !!
!!                                                                    !!
!!   nam_vvl       vertical coordinate options                          (default: z-star)
!!   namdyn_adv    formulation of the momentum advection                (default: NO selection)
!!   namdyn_vor    advection scheme                                     (default: NO selection)
!!   namdyn_hpg    hydrostatic pressure gradient                        (default: NO selection)
!!   namdyn_spg    surface pressure gradient                            (default: NO selection)
!!   namdyn_ldf    lateral diffusion scheme                             (default: NO selection)
!!   namdta_dyn    offline TOP: dynamics read in files                  (OFF_SRC only)
!!======================================================================
!
!-----------------------------------------------------------------------
&nam_vvl       !   vertical coordinate options                          (default: z-star)
!-----------------------------------------------------------------------
/
!-----------------------------------------------------------------------
&namdyn_adv    !   formulation of the momentum advection                (default: NO selection)
!-----------------------------------------------------------------------
   ln_dynadv_vec = .true.  !  vector form (T) or flux form (F)
      nn_dynkeg  = 0          ! scheme for grad(KE): =0   C2  ;  =1   Hollingsworth correction
/
!-----------------------------------------------------------------------
&namdyn_vor    !   Vorticity / Coriolis scheme                          (default: NO selection)
!-----------------------------------------------------------------------
   ln_dynvor_ene = .true.  !  energy conserving scheme
/
!-----------------------------------------------------------------------
&namdyn_hpg    !   Hydrostatic pressure gradient option                 (default: NO selection)
!-----------------------------------------------------------------------
   ln_hpg_isf  = .true.    !  s-coordinate adapted for isf (standard jacobian formulation)
/
!-----------------------------------------------------------------------
&namdyn_spg    !   surface pressure gradient                            (default: NO selection)
!-----------------------------------------------------------------------
   ln_dynspg_ts  = .true.  !  split-explicit free surface
/
!-----------------------------------------------------------------------
&namdyn_ldf    !   lateral diffusion on momentum                        (default: NO selection)
!-----------------------------------------------------------------------
   ln_dynldf_lap =  .true.     !    laplacian operator
   ln_dynldf_lev =  .true.     !  iso-level
   nn_ahm_ijk_t  = 0           !  = 0  constant = 1/2  Uv*Lv   (lap case) 
      rn_Uv      = 0.12             !  lateral viscous velocity [m/s]
      rn_Lv      = 10.e+3           !  lateral viscous length   [m]
/
!-----------------------------------------------------------------------
&namdta_dyn    !   offline ocean input files                            (OFF_SRC only)
!-----------------------------------------------------------------------

/

!!======================================================================
!!                     vertical physics namelists                     !!
!!                                                                    !!
!!    namzdf        vertical physics manager                            (default: NO selection)
!!    namzdf_ric    richardson number vertical mixing                   (ln_zdfric=T)
!!    namzdf_tke    TKE vertical mixing                                 (ln_zdftke=T)
!!    namzdf_gls    GLS vertical mixing                                 (ln_zdfgls=T)
!!    namzdf_osm    OSM vertical diffusion                              (ln_zdfosm=T)
!!    namzdf_iwm    tidal mixing parameterization                       (ln_zdfiwm=T)
!!======================================================================
!
!-----------------------------------------------------------------------
&namzdf        !   vertical physics manager                             (default: NO selection)
!-----------------------------------------------------------------------
   !                       ! type of vertical closure (required)
   ln_zdfcst   = .true.       !  constant mixing
   !
   !                       ! convection
   ln_zdfevd   = .true.       !  enhanced vertical diffusion
   rn_evd      =  0.1         ! mixing coefficient [m2/s]
   !
   !                       ! coefficients
   rn_avm0     =   1.e-3      !  vertical eddy viscosity   [m2/s]       (background Kz if ln_zdfcst)
   rn_avt0     =   5.e-5      !  vertical eddy diffusivity [m2/s]       (background Kz if ln_zdfcst)
/
!-----------------------------------------------------------------------
&namzdf_ric    !   richardson number dependent vertical diffusion       (ln_zdfric =T)
!-----------------------------------------------------------------------
/
!-----------------------------------------------------------------------
&namzdf_tke    !   turbulent eddy kinetic dependent vertical diffusion  (ln_zdftke =T)
!-----------------------------------------------------------------------
/
!-----------------------------------------------------------------------
&namzdf_gls    !   GLS vertical diffusion                               (ln_zdfgls =T)
!-----------------------------------------------------------------------
/
!-----------------------------------------------------------------------
&namzdf_osm    !   OSM vertical diffusion                               (ln_zdfosm =T)
!-----------------------------------------------------------------------
/
!-----------------------------------------------------------------------
&namzdf_iwm    !    internal wave-driven mixing parameterization        (ln_zdfiwm =T)
!-----------------------------------------------------------------------
/

!!======================================================================
!!                  ***  Diagnostics namelists  ***                   !!
!!                                                                    !!
!!   namtrd       dynamics and/or tracer trends                         (default: OFF)
!!   namhsb       Heat and salt budgets                                 (default: OFF)
!!   namdiu       Cool skin and warm layer models                       (default: OFF)
!!   namdiu       Cool skin and warm layer models                       (default: OFF)
!!   namflo       float parameters                                      (default: OFF)
!!   nam_diadct   transports through some sections                      (default: OFF)
!!   nam_dia25h   25h Mean Output                                       (default: OFF)
!!   namnc4       netcdf4 chunking and compression settings             ("key_netcdf4")
!!======================================================================
!
!-----------------------------------------------------------------------
&namtrd        !   trend diagnostics                                    (default: OFF)
!-----------------------------------------------------------------------
/
!-----------------------------------------------------------------------
&namhsb        !  Heat and salt budgets                                 (default: OFF)
!-----------------------------------------------------------------------
/
!-----------------------------------------------------------------------
&namdiu        !   Cool skin and warm layer models                      (default: OFF)
!-----------------------------------------------------------------------
/
!-----------------------------------------------------------------------
&namflo        !   float parameters                                     ("key_float")
!-----------------------------------------------------------------------
/
!-----------------------------------------------------------------------
&nam_diaharm   !   Harmonic analysis of tidal constituents              ("key_diaharm")
!-----------------------------------------------------------------------
/
!-----------------------------------------------------------------------
&namdct        ! transports through some sections                       ("key_diadct")
!-----------------------------------------------------------------------
/
!-----------------------------------------------------------------------
&nam_diatmb    !  Top Middle Bottom Output                              (default: OFF)
!-----------------------------------------------------------------------
/
!-----------------------------------------------------------------------
&nam_dia25h    !  25h Mean Output                                       (default: OFF)
!-----------------------------------------------------------------------
/
!-----------------------------------------------------------------------
&namnc4        !   netcdf4 chunking and compression settings            ("key_netcdf4")
!-----------------------------------------------------------------------
/

!!======================================================================
!!               ***  Observation & Assimilation  ***                 !!
!!                                                                    !!
!!   namobs       observation and model comparison                      (default: OFF)
!!   nam_asminc   assimilation increments                               ('key_asminc')
!!======================================================================
!
!-----------------------------------------------------------------------
&namobs        !  observation usage switch                              (default: OFF)
!-----------------------------------------------------------------------
/
!-----------------------------------------------------------------------
&nam_asminc    !   assimilation increments                              ('key_asminc')
!-----------------------------------------------------------------------
/

!!======================================================================
!!                  ***  Miscellaneous namelists  ***                 !!