!!>>>>>>>>>>>>>>>>>>>>>>>>>>>>>>>>>>>>>>>>>>>>>>>>>>>>>>>>>>>>>>>>>>>>>>
!! NEMO/OCE  Configuration namelist : overwrite default values defined in SHARED/namelist_ref
!!>>>>>>>>>>>>>>>>>>>>>>>>>>>>>>>>>>>>>>>>>>>>>>>>>>>>>>>>>>>>>>>>>>>>>>
!!             ORCA2 - ICE - PISCES configuration                     !!
!!======================================================================
!!              ***  Domain & Run management namelists  ***           !!
!!                                                                    !!
!!   namrun       parameters of the run
!!   namdom       space and time domain
!!   namcfg       parameters of the configuration                       (default: user defined GYRE)
!!   namwad       Wetting and drying                                    (default: OFF)
!!   namtsd       data: temperature & salinity                          (default: OFF)
!!   namcrs       coarsened grid (for outputs and/or TOP)               (ln_crs =T)
!!   namc1d       1D configuration options                              (ln_c1d =T)
!!   namc1d_dyndmp 1D newtonian damping applied on currents             (ln_c1d =T)
!!   namc1d_uvd   1D data (currents)                                    (ln_c1d =T)
!!======================================================================
!
!-----------------------------------------------------------------------
&namrun        !   parameters of the run
!-----------------------------------------------------------------------
   cn_exp      =  "ORCA2"  !  experience name
   nn_it000    =       1   !  first time step
   nn_itend    =     160   !  last  time step (std 5475)
   nn_istate   =       0   !  output the initial state (1) or not (0)
/
!-----------------------------------------------------------------------
&namdom        !   time and space domain
!-----------------------------------------------------------------------
   rn_Dt       = 5400.     !  time step for the dynamics and tracer
/
!-----------------------------------------------------------------------
&namcfg        !   parameters of the configuration                      (default: use namusr_def in namelist_cfg)
!-----------------------------------------------------------------------
   ln_read_cfg = .true.    !  (=T) read the domain configuration file
      cn_domcfg = "ORCA_R2_zps_domcfg"    ! domain configuration filename
      !
      ln_closea    = .false.    !  F => suppress closed seas (defined by closea_mask field) 
      !                         !       from the bathymetry at runtime.
/
!-----------------------------------------------------------------------
&namtile        !   parameters of the tiling
!-----------------------------------------------------------------------
/
!-----------------------------------------------------------------------
&namtsd        !    Temperature & Salinity Data  (init/dmp)             (default: OFF)
!-----------------------------------------------------------------------
   !                       ! =T  read T-S fields for:
   ln_tsd_init = .true.          !  ocean initialisation
   ln_tsd_dmp  = .true.          !  T-S restoring   (see namtra_dmp)

   cn_dir = './'     !  root directory for the T-S data location
   !___________!_________________________!___________________!___________!_____________!________!___________!__________________!__________!_______________!
   !           !  file name              ! frequency (hours) ! variable  ! time interp.!  clim  ! 'yearly'/ ! weights filename ! rotation ! land/sea mask !
   !           !                         !  (if <0  months)  !   name    !   (logical) !  (T/F) ! 'monthly' !                  ! pairing  !    filename   !
   sn_tem = 'data_1m_potential_temperature_nomask',     -1.     ,'votemper',   .true.    , .true. , 'yearly'  ,    ''    ,    ''    ,    ''
   sn_sal = 'data_1m_salinity_nomask'             ,     -1.     ,'vosaline',   .true.    , .true. , 'yearly'  ,    ''    ,    ''    ,    ''
/
!!======================================================================
!!            ***  Surface Boundary Condition namelists  ***          !!
!!                                                                    !!
!!   namsbc          surface boundary condition manager                 (default: NO selection)
!!   namsbc_flx      flux               formulation                     (ln_flx     =T)
!!   namsbc_blk      Bulk formulae formulation                          (ln_blk     =T)
!!   namsbc_cpl      CouPLed            formulation                     ("key_oasis3" )
!!   namsbc_sas      Stand-Alone Surface module                         (SAS_SRC  only)
!!   namsbc_iif      Ice-IF: use observed ice cover                     (nn_ice = 1   )
!!   namtra_qsr      penetrative solar radiation                        (ln_traqsr  =T)
!!   namsbc_ssr      sea surface restoring term (for T and/or S)        (ln_ssr     =T)
!!   namsbc_rnf      river runoffs                                      (ln_rnf     =T)
!!   namsbc_apr      Atmospheric Pressure                               (ln_apr_dyn =T)
!!   namsbc_isf      ice shelf melting/freezing                         (ln_isfcav  =T : read (ln_read_cfg=T) or set or usr_def_zgr )
!!   namsbc_iscpl    coupling option between land ice model and ocean   (ln_isfcav  =T)
!!   namsbc_wave     external fields from wave model                    (ln_wave    =T)
!!   namberg         iceberg floats                                     (ln_icebergs=T)
!!======================================================================
!
!-----------------------------------------------------------------------
&namsbc        !   Surface Boundary Condition manager                   (default: NO selection)
!-----------------------------------------------------------------------
   nn_fsbc     = 1         !  frequency of SBC module call
                           !     (also = the frequency of sea-ice & iceberg model call)
                     ! Type of air-sea fluxes 
   ln_cpl      = .true.     !  atmosphere coupled   formulation          ( requires key_oasis3 )
                     ! Sea-ice :
   nn_ice      = 2         !  =2 or 3 automatically for SI3 or CICE    ("key_si3" or "key_cice")
                           !          except in AGRIF zoom where it has to be specified
                     ! Misc. options of sbc : 
   ln_traqsr   = .true.    !  Light penetration in the ocean            (T => fill namtra_qsr)
   ln_ssr      = .true.    !  Sea Surface Restoring on T and/or S       (T => fill namsbc_ssr)
   ln_rnf      = .true.    !  runoffs                                   (T => fill namsbc_rnf)
   nn_fwb      = 2         !  FreshWater Budget: 
   !                       !    =2 annual global mean of e-p-r set to zero
   ln_wave     = .false.   !  Activate coupling with wave  (T => fill namsbc_wave)
   ln_cdgw     = .false.   !  Neutral drag coefficient read from wave model (T => ln_wave=.true. & fill namsbc_wave)
   ln_sdw      = .false.   !  Read 2D Surf Stokes Drift & Computation of 3D stokes drift (T => ln_wave=.true. & fill namsbc_wave) 
   nn_sdrift   =  0        !  Parameterization for the calculation of 3D-Stokes drift from the surface Stokes drift
      !                    !   = 0 Breivik 2015 parameterization: v_z=v_0*[exp(2*k*z)/(1-8*k*z)]
      !                    !   = 1 Phillips:                      v_z=v_o*[exp(2*k*z)-beta*sqrt(-2*k*pi*z)*erfc(sqrt(-2*k*z))]
      !                    !   = 2 Phillips as (1) but using the wave frequency from a wave model
   ln_tauwoc   = .false.   !  Activate ocean stress modified by external wave induced stress (T => ln_wave=.true. & fill namsbc_wave)
   ln_tauw     = .false.   !  Activate ocean stress components from wave model
   ln_stcor    = .false.   !  Activate Stokes Coriolis term (T => ln_wave=.true. & ln_sdw=.true. & fill namsbc_wave)
/
!-----------------------------------------------------------------------
&namsbc_blk    !   namsbc_blk  generic Bulk formula                     (ln_blk =T)
!-----------------------------------------------------------------------
   !                    !  bulk algorithm :
   ln_NCAR    = .true.     ! "NCAR"      algorithm   (Large and Yeager 2008)

   cn_dir = './'  !  root directory for the bulk data location
   !___________!_________________________!___________________!___________!_____________!________!___________!______________________________________!__________!_______________!
   !           !  file name              ! frequency (hours) ! variable  ! time interp.!  clim  ! 'yearly'/ !          weights filename            ! rotation ! land/sea mask !
   !           !                         !  (if <0  months)  !   name    !   (logical) !  (T/F) ! 'monthly' !                                      ! pairing  !    filename   !
   sn_wndi     = 'u_10.15JUNE2009_fill'       ,    6.        , 'U_10_MOD',   .false.   , .true. , 'yearly'  , 'weights_core_orca2_bicubic_noc.nc'  , 'Uwnd'   , ''
   sn_wndj     = 'v_10.15JUNE2009_fill'       ,    6.        , 'V_10_MOD',   .false.   , .true. , 'yearly'  , 'weights_core_orca2_bicubic_noc.nc'  , 'Vwnd'   , ''
   sn_qsr      = 'ncar_rad.15JUNE2009_fill'   ,   24.        , 'SWDN_MOD',   .false.   , .true. , 'yearly'  , 'weights_core_orca2_bilinear_noc.nc' , ''       , ''
   sn_qlw      = 'ncar_rad.15JUNE2009_fill'   ,   24.        , 'LWDN_MOD',   .false.   , .true. , 'yearly'  , 'weights_core_orca2_bilinear_noc.nc' , ''       , ''
   sn_tair     = 't_10.15JUNE2009_fill'       ,    6.        , 'T_10_MOD',   .false.   , .true. , 'yearly'  , 'weights_core_orca2_bilinear_noc.nc' , ''       , ''
   sn_humi     = 'q_10.15JUNE2009_fill'       ,    6.        , 'Q_10_MOD',   .false.   , .true. , 'yearly'  , 'weights_core_orca2_bilinear_noc.nc' , ''       , ''
   sn_prec     = 'ncar_precip.15JUNE2009_fill',   -1.        , 'PRC_MOD1',   .false.   , .true. , 'yearly'  , 'weights_core_orca2_bilinear_noc.nc' , ''       , ''
   sn_snow     = 'ncar_precip.15JUNE2009_fill',   -1.        , 'SNOW'    ,   .false.   , .true. , 'yearly'  , 'weights_core_orca2_bilinear_noc.nc' , ''       , ''
   sn_slp      = 'slp.15JUNE2009_fill'        ,    6.        , 'SLP'     ,   .false.   , .true. , 'yearly'  , 'weights_core_orca2_bilinear_noc.nc' , ''       , ''
/
&namsbc_cpl    !   coupled ocean/atmosphere model                       ("key_oasis3")
!-----------------------------------------------------------------------
   nn_cplmodel   =     1   !  Maximum number of models to/from which NEMO is potentially sending/receiving data
   ln_usecplmask = .false. !  use a coupling mask file to merge data received from several models
   !                       !   -> file cplmask.nc with the float variable called cplmask (jpi,jpj,nn_cplmodel)
   nn_cats_cpl   =     5   !  Number of sea ice categories over which coupling is to be carried out (if not 1)

   !_____________!__________________________!____________!_____________!______________________!________!
   !             !        description       !  multiple  !    vector   !       vector         ! vector !
   !             !                          ! categories !  reference  !     orientation      ! grids  !
!***   send    ***
!!   sn_snd_temp   =   'weighted oce and ice' ,    'no'    ,     ''      ,         ''           ,   ''
   sn_snd_temp   =   'mixed oce-ice'        ,    'no'    ,     ''      ,         ''           ,   ''
   sn_snd_ttilyr =   'none'                 ,    'no'    ,     ''      ,         ''           ,   ''
   sn_snd_alb    =   'none'                 ,    'no'    ,     ''      ,         ''           ,   ''
   sn_snd_thick  =   'none'                 ,    'no'    ,     ''      ,         ''           ,   ''
   sn_snd_ifrac  =   'none'                 ,    'no'    ,     ''      ,         ''           ,   ''
   sn_snd_crt    =   'none'                 ,    'no'    , 'spherical' , 'eastward-northward' ,  'T'
   sn_snd_co2    =   'none'                 ,    'no'    ,     ''      ,         ''           ,   ''
   sn_snd_cond   =   'none'                 ,    'no'    ,     ''      ,         ''           ,   ''
   sn_snd_mpnd   =   'none'                 ,    'no'    ,     ''      ,         ''           ,   ''
   sn_snd_sstfrz =   'none'                 ,    'no'    ,     ''      ,         ''           ,   ''
   sn_snd_crtw   =   'none'                 ,    'no'    ,     ''      ,         ''           , 'U,V'
   sn_snd_wlev   =   'none'                 ,    'no'    ,     ''      ,         ''           ,   ''
   sn_snd_thick1 =   'none'                 ,    'no'    ,     ''      ,         ''           ,   ''
!***  receive  ***
   sn_rcv_w10m   =   'none'                 ,    'no'    ,     ''      ,         ''           ,   ''
   sn_rcv_taumod =   'none'                 ,    'no'    ,     ''      ,         ''           ,   ''
   sn_rcv_tau    =   'oce only'             ,    'no'    , 'spherical' , 'eastward-northward' ,  'T'
   sn_rcv_dqnsdt =   'coupled'              ,    'no'    ,     ''      ,         ''           ,   ''
   sn_rcv_qsr    =   'conservative'         ,    'no'    ,     ''      ,         ''           ,   ''
   sn_rcv_qns    =   'conservative'         ,    'no'    ,     ''      ,         ''           ,   ''
   sn_rcv_emp    =   'conservative'         ,    'no'    ,     ''      ,         ''           ,   ''
   sn_rcv_rnf    =   'none'                 ,    'no'    ,     ''      ,         ''           ,   ''
   sn_rcv_cal    =   'none'                 ,    'no'    ,     ''      ,         ''           ,   ''
   sn_rcv_icb    =   'none'                 ,    'no'    ,     ''      ,         ''           ,   ''
   sn_rcv_isf    =   'none'                 ,    'no'    ,     ''      ,         ''           ,   ''
   sn_rcv_iceflx =   'none'                 ,    'no'    ,     ''      ,         ''           ,   ''
   sn_rcv_co2    =   'none'                 ,    'no'    ,     ''      ,         ''           ,   ''
   sn_rcv_hsig   =   'none'                 ,    'no'    ,     ''      ,         ''           ,   ''
   sn_rcv_phioc  =   'none'                 ,    'no'    ,     ''      ,         ''           ,   ''
   sn_rcv_sdrfx  =   'none'                 ,    'no'    ,     ''      ,         ''           ,   ''
   sn_rcv_sdrfy  =   'none'                 ,    'no'    ,     ''      ,         ''           ,   ''
   sn_rcv_wper   =   'none'                 ,    'no'    ,     ''      ,         ''           ,   ''
   sn_rcv_wnum   =   'none'                 ,    'no'    ,     ''      ,         ''           ,   ''
   sn_rcv_wfreq  =   'none'                 ,    'no'    ,     ''      ,         ''           ,   ''
   sn_rcv_tauwoc =   'none'                 ,    'no'    ,     ''      ,         ''          ,   ''
   sn_rcv_tauw   =   'none'                 ,    'no'    ,     ''      ,         ''          ,   ''
   sn_rcv_wdrag  =   'none'                 ,    'no'    ,     ''      ,         ''          ,   ''
   sn_rcv_ts_ice =   'none'                 ,    'no'    ,     ''      ,         ''           ,   ''
   sn_rcv_mslp   =   'none'                 ,    'no'    ,     ''      ,         ''           ,   ''
/
!-----------------------------------------------------------------------
&namtra_qsr    !   penetrative solar radiation                          (ln_traqsr =T)
!-----------------------------------------------------------------------
   !                       ! type of penetration                        (default: NO selection)
   ln_qsr_rgb  = .true.       !  RGB light penetration (Red-Green-Blue)
   !
   nn_chldta   =      1       !  RGB : Chl data (=1) or cst value (=0)

   cn_dir = './'  !  root directory for the chlorophyl data location
   !___________!_________________________!___________________!___________!_____________!________!___________!__________________!__________!_______________!
   !           !  file name              ! frequency (hours) ! variable  ! time interp.!  clim  ! 'yearly'/ ! weights filename ! rotation ! land/sea mask !
   !           !                         !  (if <0  months)  !   name    !   (logical) !  (T/F) ! 'monthly' !                  ! pairing  !    filename   !
   sn_chl      ='chlorophyll'            ,        -1.        , 'CHLA'    ,   .true.    , .true. , 'yearly'  , ''               , ''       , ''
/
!-----------------------------------------------------------------------
&namsbc_ssr    !   surface boundary condition : sea surface restoring   (ln_ssr =T)
!-----------------------------------------------------------------------
   nn_sssr     =     2     !  add a damping term to the surface freshwater flux
      rn_deds     =  -166.67  !  magnitude of the damping on salinity   [mm/day]
      ln_sssr_bnd =  .true.   !  flag to bound erp term (associated with nn_sssr=2)
      rn_sssr_bnd =   4.e0    !  ABS(Max/Min) value of the damping erp term [mm/day]
/
!-----------------------------------------------------------------------
&namsbc_rnf    !   runoffs                                              (ln_rnf =T)
!-----------------------------------------------------------------------
   ln_rnf_mouth = .true.    !  specific treatment at rivers mouths
      rn_hrnf     =  15.e0    !  depth over which enhanced vertical mixing is used    (ln_rnf_mouth=T)
      rn_avt_rnf  =   1.e-3   !  value of the additional vertical mixing coef. [m2/s] (ln_rnf_mouth=T)
   rn_rfact    =   1.e0    !  multiplicative factor for runoff

   cn_dir = './'  !  root directory for the location of the runoff files
   !___________!_____________!___________________!___________!_____________!_________!___________!__________!__________!_______________!
   !           !  file name  ! frequency (hours) ! variable  ! time interp. !  clim  ! 'yearly'/ ! weights  ! rotation ! land/sea mask !
   !           !             !  (if <0  months)  !   name    !   (logical)  !  (T/F) ! 'monthly' ! filename ! pairing  ! filename      !
   sn_rnf      = 'runoff_core_monthly',    -1.   , 'sorunoff',   .true.     , .true. , 'yearly'  , ''       , ''       , ''
   sn_cnf      = 'runoff_core_monthly',     0.   , 'socoefr0',   .false.    , .true. , 'yearly'  , ''       , ''       , ''
   sn_s_rnf    = 'runoffs'            ,    24.   , 'rosaline',   .true.     , .true. , 'yearly'  , ''       , ''       , ''
   sn_t_rnf    = 'runoffs'            ,    24.   , 'rotemper',   .true.     , .true. , 'yearly'  , ''       , ''       , ''
   sn_dep_rnf  = 'runoffs'            ,     0.   , 'rodepth' ,   .false.    , .true. , 'yearly'  , ''       , ''       , ''
/
!-----------------------------------------------------------------------
&namsbc_wave   ! External fields from wave model                        (ln_wave=T)
!-----------------------------------------------------------------------
/
!-----------------------------------------------------------------------
&namberg       !   iceberg parameters                                   (default: OFF)
!-----------------------------------------------------------------------
   ln_icebergs = .true.    ! activate iceberg floats (force =F with "key_agrif")

   cn_dir = './'  !  root directory for the location of drag coefficient files
   !______!___________!___________________!______________!______________!_________!___________!__________!__________!_______________!
   !      ! file name ! frequency (hours) !   variable   ! time interp. !  clim   ! 'yearly'/ ! weights  ! rotation ! land/sea mask !
   !      !           !  (if <0  months)  !     name     !   (logical)  !  (T/F ) ! 'monthly' ! filename ! pairing  ! filename      !
   sn_icb =  'calving',       -1.         , 'calving'    ,   .true.     , .true.  , 'yearly'  , ''       , ''       , ''
/
!!======================================================================
!!               ***  Lateral boundary condition  ***                 !!
!!                                                                    !!
!!   namlbc        lateral momentum boundary condition                  (default: NO selection)
!!   namagrif      agrif nested grid   (read by child model only)       ("key_agrif")
!!   nam_tide      Tidal forcing                                        (default: OFF)
!!   nambdy        Unstructured open boundaries                         (default: OFF)
!!   nambdy_dta    Unstructured open boundaries - external data         (see  nambdy)
!!   nambdy_tide   tidal forcing at open boundaries                     (default: OFF)
!!======================================================================
!
!-----------------------------------------------------------------------
&namlbc        !   lateral momentum boundary condition                  (default: NO selection)
!-----------------------------------------------------------------------
   rn_shlat    =    2.     !  no slip
/
!-----------------------------------------------------------------------
&namagrif      !  AGRIF zoom                                            ("key_agrif")
!-----------------------------------------------------------------------
   ln_spc_dyn    = .true.  !  use 0 as special value for dynamics
   rn_sponge_tra = 2880.   !  coefficient for tracer   sponge layer [m2/s]
   rn_sponge_dyn = 2880.   !  coefficient for dynamics sponge layer [m2/s]
   ln_chk_bathy  = .false. !  =T  check the parent bathymetry
/
!!======================================================================
!!                ***  Top/Bottom boundary condition  ***             !!
!!                                                                    !!
!!   namdrg        top/bottom drag coefficient                          (default: NO selection)
!!   namdrg_top    top    friction                                      (ln_drg_OFF=F & ln_isfcav=T)
!!   namdrg_bot    bottom friction                                      (ln_drg_OFF=F)
!!   nambbc        bottom temperature boundary condition                (default: OFF)
!!   nambbl        bottom boundary layer scheme                         (default: OFF)
!!======================================================================
!
!-----------------------------------------------------------------------
&namdrg        !   top/bottom drag coefficient                          (default: NO selection)
!-----------------------------------------------------------------------
   ln_lin = .true.         !     linear  drag: Cd = Cd0 Uc0
/
!-----------------------------------------------------------------------
&nambbc        !   bottom temperature boundary condition                (default: OFF)
!-----------------------------------------------------------------------
   ln_trabbc   = .true.    !  Apply a geothermal heating at the ocean bottom
      nn_geoflx   =    2      !  geothermal heat flux: = 2 read variable flux [mW/m2]

   cn_dir = './'  !  root directory for the geothermal data location
   !___________!_________________________!___________________!___________!_____________!________!___________!__________________!__________!_______________!
   !           !  file name              ! frequency (hours) ! variable  ! time interp.!  clim  ! 'yearly'/ ! weights filename ! rotation ! land/sea mask !
   !           !                         !  (if <0  months)  !   name    !   (logical) !  (T/F) ! 'monthly' !                  ! pairing  !    filename   !
   sn_qgh      ='geothermal_heating.nc'  ,       -12.        , 'heatflow',   .false.   , .true. , 'yearly'  ,   ''             ,   ''     ,   ''
/
!-----------------------------------------------------------------------
&nambbl        !   bottom boundary layer scheme                         (default: OFF)
!-----------------------------------------------------------------------
   ln_trabbl   = .true.    !  Bottom Boundary Layer parameterisation flag
      nn_bbl_ldf  =  1        !  diffusive bbl (=1)   or not (=0)
      nn_bbl_adv  =  0        !  advective bbl (=1/2) or not (=0)
      rn_ahtbbl   =  1000.    !  lateral mixing coefficient in the bbl  [m2/s]
      rn_gambbl   =  10.      !  advective bbl coefficient                 [s]
/
!!======================================================================
!!                        Tracer (T-S) namelists                      !!
!!                                                                    !!
!!   nameos        equation of state                                    (default: NO selection)
!!   namtra_adv    advection scheme                                     (default: NO selection)
!!   namtra_ldf    lateral diffusion scheme                             (default: NO selection)
!!   namtra_mle    mixed layer eddy param. (Fox-Kemper param.)          (default: OFF)
!!   namtra_eiv    eddy induced velocity param.                         (default: OFF)
!!   namtra_dmp    T & S newtonian damping                              (default: OFF)
!!======================================================================
!
!-----------------------------------------------------------------------
&nameos        !   ocean Equation Of Seawater                           (default: NO selection)
!-----------------------------------------------------------------------
   ln_eos80    = .true.          !  = Use EOS80
/
!-----------------------------------------------------------------------
&namtra_adv    !   advection scheme for tracer                          (default: NO selection)
!-----------------------------------------------------------------------
   ln_traadv_fct = .true.     !  FCT scheme
      nn_fct_h   =  2               !  =2/4, horizontal 2nd / 4th order 
      nn_fct_v   =  2               !  =2/4, vertical   2nd / COMPACT 4th order 
/
!-----------------------------------------------------------------------
&namtra_ldf    !   lateral diffusion scheme for tracers                 (default: NO selection)
!-----------------------------------------------------------------------
   ln_traldf_lap   = .true.    !    laplacian operator
   ln_traldf_iso   = .true.    !  iso-neutral (Standard operator)
   ln_traldf_msc   = .true.    !  Method of Stabilizing Correction      (both operators)
   !                       !  Coefficients:
   nn_aht_ijk_t    = 20        !  space/time variation of eddy coef
      !                             !   = 20     aht = 1/2  Ud. max(e1,e2)
      rn_Ud        = 0.018          !  lateral diffusive velocity [m/s] (nn_aht_ijk_t= 0, 10, 20, 30)
      rn_Ld        = 200.e+3        !  lateral diffusive length   [m]   (nn_aht_ijk_t= 0, 10)
/
!-----------------------------------------------------------------------
&namtra_mle    !   mixed layer eddy parametrisation (Fox-Kemper)        (default: OFF)
!-----------------------------------------------------------------------
   ln_mle      = .true.   ! (T) use the Mixed Layer Eddy (MLE) parameterisation
/
!-----------------------------------------------------------------------
&namtra_eiv    !   eddy induced velocity param.                         (default: OFF)
!-----------------------------------------------------------------------
   ln_ldfeiv   = .true.    ! use eddy induced velocity parameterization
      !                        !  Coefficients:
      nn_aei_ijk_t  = 21          ! space/time variation of the eiv coeficient
      !                                !   = 21 F(i,j,t)  =Treguier et al. JPO 1997 formulation
      !                           !  time invariant coefficients:  aei0 = 1/2  Ue*Le 
      rn_Ue        = 0.03              !  lateral diffusive velocity [m/s] (nn_aht_ijk_t= 0, 10, 20, 30)
      rn_Le        = 200.e+3           !  lateral diffusive length   [m]   (nn_aht_ijk_t= 0, 10)
      !
      ln_ldfeiv_dia =.true.   ! diagnose eiv stream function and velocities
/
!-----------------------------------------------------------------------
&namtra_dmp    !   tracer: T & S newtonian damping                      (default: OFF)
!-----------------------------------------------------------------------
   ln_tradmp   =  .true.   !  add a damping term (using resto.nc coef.)
      nn_zdmp  =    0         !  vertical shape =0    damping throughout the water column
/
!!======================================================================
!!                      ***  Dynamics namelists  ***                  !!
!!                                                                    !!
!!   nam_vvl       vertical coordinate options                          (default: z-star)
!!   namdyn_adv    formulation of the momentum advection                (default: NO selection)
!!   namdyn_vor    advection scheme                                     (default: NO selection)
!!   namdyn_hpg    hydrostatic pressure gradient                        (default: NO selection)
!!   namdyn_spg    surface pressure gradient                            (default: NO selection)
!!   namdyn_ldf    lateral diffusion scheme                             (default: NO selection)
!!   namdta_dyn    offline TOP: dynamics read in files                  (OFF_SRC only)
!!======================================================================
!
!-----------------------------------------------------------------------
&namdyn_adv    !   formulation of the momentum advection                (default: NO selection)
!-----------------------------------------------------------------------
   ln_dynadv_vec = .true.  !  vector form - 2nd centered scheme
     nn_dynkeg     = 0        ! grad(KE) scheme: =0   C2  ;  =1   Hollingsworth correction
/
!-----------------------------------------------------------------------
&namdyn_vor    !   Vorticity / Coriolis scheme                          (default: NO selection)
!-----------------------------------------------------------------------
   ln_dynvor_een = .true.  !  energy & enstrophy scheme
/
!-----------------------------------------------------------------------
&namdyn_hpg    !   Hydrostatic pressure gradient option                 (default: NO selection)
!-----------------------------------------------------------------------