!-----------------------------------------------------------------------
&namusr_def
!-----------------------------------------------------------------------
   nn_wad_test = 7
/
!-----------------------------------------------------------------------
&namrun        !   parameters of the run
!-----------------------------------------------------------------------
   nn_itend    =      9600  !  last  time step
/
!-----------------------------------------------------------------------
&nambdy        !  unstructured open boundaries
!-----------------------------------------------------------------------
    ln_bdy         = .true.             
    nb_bdy         = 1                    !  number of open boundary sets
/
!-----------------------------------------------------------------------
&namwad  !   Wetting and drying
!-----------------------------------------------------------------------
   rn_wdmin1         =  0.150   ! Minimum wet depth on dried cells
/
